src/applications/data_sets/raw/IEEE14_ca_mod_rate6.raw
0  100.000
// Added multiple lines between buses 13 and 14 to simulate single line failure 
                                                                               
      1, 3,     0.000,     0.000,     0.000,     0.000,   1,1.06000, 0.0000,'BUS-1         ',100.0000,   1
      2, 2,    21.700,    12.700,     0.000,     0.000,   1,1.04500, -4.9800,'BUS-2        ',100.0000,   1
      3, 2,    94.200,    19.000,     0.000,     0.000,   1,1.01000, -12.7200,'BUS-3       ',100.0000,   1
      4, 1,    47.800,    -3.900,     0.000,     0.000,   1,1.01900, -10.3300,'BUS-4       ',100.0000,   1
      5, 1,     7.600,     1.600,     0.000,     0.000,   1,1.02000, -8.7800,'BUS-5        ',100.0000,   1
      6, 2,    11.200,     7.500,     0.000,     0.000,   1,1.07000, -14.2200,'BUS-6       ',100.0000,   1
      7, 1,     0.000,     0.000,     0.000,     0.000,   1,1.06200, -13.3700,'BUS-7       ',100.0000,   1
      8, 2,     0.000,     0.000,     0.000,     0.000,   1,1.09000, -13.3600,'BUS-8       ',100.0000,   1
      9, 1,    29.500,    16.600,     0.000,    19.000,   1,1.05600, -14.9400,'BUS-9       ',100.0000,   2
     10, 1,     9.000,     5.800,     0.000,     0.000,   1,1.05100, -15.1000,'BUS-10      ',100.0000,   2
     11, 1,     3.500,     1.800,     0.000,     0.000,   1,1.05700, -14.7900,'BUS-11      ',100.0000,   2
     12, 1,     6.100,     1.600,     0.000,     0.000,   1,1.05500, -15.0700,'BUS-12      ',100.0000,   2
     13, 1,    13.500,     5.800,     0.000,     0.000,   1,1.05000, -15.1600,'BUS-13      ',100.0000,   2
     14, 1,    14.900,     5.000,     0.000,     0.000,   1,1.03600, -16.0400,'BUS-14      ',100.0000,   2
0
     1,'1 ',   232.400,   -16.900, 99990.000, -9999.000,1.06000,     0,   100.000,   0.00000,   1.00000,   0.00000,   0.00000,   1.00000,1,  100.0,   500.000,    50.000
     2,'1 ',    40.000,    42.400,    800.000,   -800.0,1.04500,     0,   100.000,   0.00000,   1.00000,   0.00000,   0.00000,   1.00000,1,  100.0,   100.000,    20.000
     3,'1 ',     0.000,    23.400,    800.000,   -800.0,1.01000,     0,   100.000,   0.00000,   1.00000,   0.00000,   0.00000,   1.00000,1,  100.0,    50.000,     0.000
     6,'1 ',     0.000,    12.200,    800.000,   -800.0,1.07000,     0,   100.000,   0.00000,   1.00000,   0.00000,   0.00000,   1.00000,1,  100.0,    50.000,     0.000
     8,'1 ',     0.000,    17.400,    800.000,   -800.0,1.09000,     0,   100.000,   0.00000,   1.00000,   0.00000,   0.00000,   1.00000,1,  100.0,    50.000,     0.000
0 / END OF GENERATOR DATA, BEGIN BRANCH DATA
      1,      2,'BL',  0.01938,  0.05917,  0.05280, 569.16,   569.16,  	569.16,   0.00000,000.000, 0.00000, 0.00000, 0.00000, 0.00000, 1
      1,      5,'BL',  0.05403,  0.22304,  0.04920, 672.16,   672.16,  	672.16,   0.00000,000.000, 0.00000, 0.00000, 0.00000, 0.00000, 1
      2,      3,'BL',  0.04699,  0.19797,  0.04380, 263.52,   263.52,  	263.52,   0.00000,000.000, 0.00000, 0.00000, 0.00000, 0.00000, 1
      2,      4,'BL',  0.05811,  0.17632,  0.03400,  319.6,    319.6,  	 319.6,   0.00000,000.000, 0.00000, 0.00000, 0.00000, 0.00000, 1
      2,      5,'BL',  0.05695,  0.17388,  0.03460, 267.76,   267.76, 	267.76,   0.00000,000.000, 0.00000, 0.00000, 0.00000, 0.00000, 1
      3,      4,'BL',  0.06701,  0.17103,  0.01280, 345.32,   345.32, 	345.32,   0.00000,000.000, 0.00000, 0.00000, 0.00000, 0.00000, 1
      4,      5,'BL',  0.01335,  0.04211,  0.00000,  351.0,    351.0, 	 351.0,   0.00000,000.000, 0.00000, 0.00000, 0.00000, 0.00000, 1
      4,      7,'BL',  0.00000,  0.20912,  0.00000, 105.12,   105.12,	105.12,   0.97800,  0.000, 0.00000, 0.00000, 0.00000, 0.00000, 1
      4,      9,'BL',  0.00000,  0.55618,  0.00000, 100.88,   100.88,	100.88,   0.96900,  0.000, 0.00000, 0.00000, 0.00000, 0.00000, 1
      5,      6,'BL',  0.00000,  0.25202,  0.00000, 168.12,   168.12, 	168.12,   0.93200,  0.000, 0.00000, 0.00000, 0.00000, 0.00000, 1
      6,     11,'BL',  0.09498,  0.19890,  0.00000,  52.28,    52.28, 	 52.28,   0.00000,000.000, 0.00000, 0.00000, 0.00000, 0.00000, 1
      6,     12,'BL',  0.12291,  0.25581,  0.00000,  70.96,    70.96,	 70.96,   0.00000,000.000, 0.00000, 0.00000, 0.00000, 0.00000, 1
      6,     13,'BL',  0.06615,  0.13027,  0.00000,  74.52,    74.52, 	 74.52,   0.00000,000.000, 0.00000, 0.00000, 0.00000, 0.00000, 1
      7,      8,'BL',  0.00000,  0.17615,  0.00000,  59.76,    59.76,	 59.76,   0.00000,000.000, 0.00000, 0.00000, 0.00000, 0.00000, 1
      7,      9,'BL',  0.00000,  0.11001,  0.00000, 100.44,   100.44, 	100.44,   0.00000,000.000, 0.00000, 0.00000, 0.00000, 0.00000, 1
      9,     10,'BL',  0.03181,  0.08450,  0.00000,   53.0,     53.0, 	  53.0,   0.00000,000.000, 0.00000, 0.00000, 0.00000, 0.00000, 1
      9,     14,'BL',  0.12711,  0.27038,  0.00000,   64.8,     64.8,	  64.8,   0.00000,000.000, 0.00000, 0.00000, 0.00000, 0.00000, 1
     10,     11,'BL',  0.08205,  0.19207,  0.00000,   40.0,     40.0,	  40.0,   0.00000,000.000, 0.00000, 0.00000, 0.00000, 0.00000, 1
     12,     13,'BL',  0.22092,  0.19988,  0.00000,  47.92,    47.92,	 47.92,   	0.00000,000.000, 0.00000, 0.00000, 0.00000, 0.00000, 1
     13,     14,'B1',  0.17093,  0.34802,  0.00000,  21.36,    21.36,	 21.36,   	0.00000,000.000, 0.00000, 0.00000, 0.00000, 0.00000, 1
     13,     14,'B2',  0.17093,  0.34802,  0.00000,  21.36,    21.36,	 21.36,   	0.00000,000.000, 0.00000, 0.00000, 0.00000, 0.00000, 1
     13,     14,'B3',  0.17093,  0.34802,  0.00000,  21.36,    21.36,	 21.36,   	0.00000,000.000, 0.00000, 0.00000, 0.00000, 0.00000, 1
0 / END OF BRANCH DATA, BEGIN TRANSFORMER ADJUSTMENT DATA
0 / END OF TRANSFORMER ADJUSTMENT DATA, BEGIN AREA DATA
   1,      0,     0.0,  3.000,'            '
0 / END OF AREA DATA, BEGIN TWO-TERMINAL DC DATA
0 / END OF TWO-TERMINAL DC DATA, BEGIN SWITCHED SHUNT DATA
0 / END OF SWITCHED SHUNT DATA, BEGIN IMPEDANCE CORRECTION DATA
0 / END OF IMPEDANCE CORRECTION DATA, BEGIN MULTI-TERMINAL DC DATA
0 / END OF MULTI-TERMINAL DC DATA, BEGIN MULTI-SECTION LINE DATA
0 / END OF MULTI-SECTION LINE DATA, BEGIN ZONE DATA
    2,'ZONE_2      '
0 / END OF ZONE DATA, BEGIN INTER-AREA TRANSFER DATA
    2,    1,'1 ',    0.00
0 / END OF INTER-AREA TRANSFER DATA, BEGIN OWNER DATA
    1,'OWNER_1     '
0 / END OF OWNER DATA, BEGIN FACTS DEVICE DATA
